test/test_files/IEEE_test_cases/IEEE300Bus.raw
 0,    100.00, 33, 0, 0, 60.00       / December 04, 2013 16:45:53
 13/05/91 CYME INTERNATIONAL    100.0 1991 S
 IEEE 300-BUS TEST SYSTEM
    1,'1           ', 115.0000,1,   1,   1,   1,1.02700,   6.5179
    2,'1           ', 115.0000,1,   1,   1,   1,1.03405,   8.2751
    3,'1           ', 230.0000,1,   1,   1,   1,0.99379,   7.2175
    4,'1           ', 345.0000,1,   1,   1,   1,1.02739,   5.2076
    5,'1           ', 115.0000,1,   1,   1,   1,1.01750,   5.2490
    6,'1           ', 115.0000,1,   1,   1,   1,1.02955,   7.5370
    7,'1           ', 230.0000,1,   1,   1,   1,0.99028,   6.7787
    8,'1           ', 115.0000,2,   1,   1,   1,1.01374,   2.8657
    9,'1           ', 115.0000,1,   1,   1,   1,1.00213,   3.3902
   10,'1           ', 230.0000,2,   1,   1,   1,1.01869,   1.8806
   11,'1           ', 115.0000,1,   1,   1,   1,1.00478,   2.9776
   12,'1           ', 230.0000,1,   1,   1,   1,0.99516,   5.7769
   13,'1           ', 115.0000,1,   1,   1,   1,0.99638,  -0.0417
   14,'1           ', 115.0000,1,   1,   1,   1,0.99694,  -4.4924
   15,'1           ', 115.0000,1,   1,   1,   1,1.03203,  -8.3981
   16,'1           ', 345.0000,1,   1,   1,   1,1.02849,  -2.4512
   17,'1           ', 115.0000,1,   1,   1,   1,1.06285, -12.9513
   19,'1           ', 230.0000,1,   1,   1,   1,0.97980,   1.5696
   20,'1           ', 115.0000,2,   1,   1,   1,0.99930,  -1.9530
   21,'1           ', 230.0000,1,   1,   1,   1,0.97334,   2.1405
   22,'1           ', 115.0000,1,   1,   1,   1,0.99485,  -1.4679
   23,'1           ', 115.0000,1,   1,   1,   1,1.04970,   4.4434
   24,'1           ', 230.0000,1,   1,   1,   1,1.00491,   6.5375
   25,'1           ', 115.0000,1,   1,   1,   1,1.02280,   1.9438
   26,'1           ', 115.0000,1,   1,   1,   1,0.99777,  -1.2316
   27,'1           ', 115.0000,1,   1,   1,   1,0.97383,  -4.3977
   33,'1           ', 115.0000,1,   1,   1,   1,1.02333, -12.1644
   34,'1           ', 345.0000,1,   1,   1,   1,1.03976,  -8.0641
   35,'1           ', 115.0000,1,   1,   1,   1,0.97563, -26.1717
   36,'1           ', 230.0000,1,   1,   1,   1,1.00100, -23.0352
   37,'1           ', 115.0000,1,   1,   1,   1,1.01903, -11.3232
   38,'1           ', 115.0000,1,   1,   1,   1,1.01915, -12.7111
   39,'1           ', 345.0000,1,   1,   1,   1,1.05216,  -5.9322
   40,'1           ', 115.0000,1,   1,   1,   1,1.02051, -12.9048
   41,'1           ', 115.0000,1,   1,   1,   1,1.02799, -10.5783
   42,'1           ', 345.0000,1,   1,   1,   1,1.04321,  -7.5692
   43,'1           ', 115.0000,1,   1,   1,   1,1.00013, -17.1731
   44,'1           ', 115.0000,1,   1,   1,   1,1.00866, -17.9958
   45,'1           ', 230.0000,1,   1,   1,   1,1.02191, -15.3052
   46,'1           ', 345.0000,1,   1,   1,   1,1.03314, -12.0786
   47,'1           ', 115.0000,1,   1,   1,   1,0.97789, -23.6337
   48,'1           ', 115.0000,1,   1,   1,   1,1.00135, -16.2338
   49,'1           ', 115.0000,1,   1,   1,   1,1.04730,  -2.9852
   51,'1           ', 115.0000,1,   1,   1,   1,1.02453,  -8.3624
   52,'1           ', 115.0000,1,   1,   1,   1,0.99756, -12.3937
   53,'1           ', 115.0000,1,   1,   1,   1,0.99564, -18.0529
   54,'1           ', 115.0000,1,   1,   1,   1,1.00510, -16.8148
   55,'1           ', 115.0000,1,   1,   1,   1,1.01536, -12.9793
   57,'1           ', 115.0000,1,   1,   1,   1,1.03380,  -9.5806
   58,'1           ', 115.0000,1,   1,   1,   1,0.99148,  -7.9249
   59,'1           ', 115.0000,1,   1,   1,   1,0.97861,  -7.3294
   60,'1           ', 230.0000,1,   1,   1,   1,1.02659, -10.7944
   61,'1           ', 115.0000,1,   1,   1,   1,0.99057,  -5.5617
   62,'1           ', 230.0000,1,   1,   1,   1,1.01683,  -3.4033
   63,'1           ', 115.0000,2,   1,   1,   1,0.95830, -19.7648
   64,'1           ', 230.0000,1,   1,   1,   1,0.94840, -15.1524
   69,'1           ', 115.0000,1,   1,   1,   1,0.96298, -26.0903
   70,'1           ', 115.0000,1,   1,   1,   1,0.95127, -35.6144
   71,'1           ', 115.0000,1,   1,   1,   1,0.97935, -30.3347
   72,'1           ', 115.0000,1,   1,   1,   1,0.96956, -27.9275
   73,'1           ', 115.0000,1,   1,   1,   1,0.97751, -26.2285
   74,'1           ', 230.0000,1,   1,   1,   1,0.99649, -22.4726
   76,'1           ', 115.0000,2,   1,   1,   1,0.96321, -26.9922
   77,'1           ', 115.0000,1,   1,   1,   1,0.98375, -25.3889
   78,'1           ', 115.0000,1,   1,   1,   1,0.98997, -24.4985
   79,'1           ', 115.0000,1,   1,   1,   1,0.98197, -25.4225
   80,'1           ', 115.0000,1,   1,   1,   1,0.98718, -25.4094
   81,'1           ', 345.0000,1,   1,   1,   1,1.03356, -19.2976
   84,'1           ', 115.0000,2,   1,   1,   1,1.02500, -17.6113
   85,'1           ', 230.0000,1,   1,   1,   1,0.98673, -17.6554
   86,'1           ', 230.0000,1,   1,   1,   1,0.99012, -14.0933
   87,'1           ', 230.0000,1,   1,   1,   1,0.99041,  -7.5075
   88,'1           ', 230.0000,1,   1,   1,   1,1.01496, -21.3966
   89,'1           ', 115.0000,1,   1,   1,   1,1.03083, -11.0748
   90,'1           ', 115.0000,1,   1,   1,   1,1.02632, -11.2573
   91,'1           ', 115.0000,2,   1,   1,   1,1.05200,  -9.3310
   92,'1           ', 115.0000,2,   1,   1,   1,1.05200,  -6.2326
   94,'1           ', 115.0000,1,   1,   1,   1,0.99191,  -9.1984
   97,'1           ', 115.0000,1,   1,   1,   1,1.01803, -13.1777
   98,'1           ', 115.0000,2,   1,   1,   1,1.00000, -14.5454
   99,'1           ', 115.0000,1,   1,   1,   1,0.98933, -20.2952
  100,'1           ', 115.0000,1,   1,   1,   1,1.00582, -14.3833
  102,'1           ', 115.0000,1,   1,   1,   1,1.00047, -15.1642
  103,'1           ', 115.0000,1,   1,   1,   1,1.02857, -12.0802
  104,'1           ', 115.0000,1,   1,   1,   1,0.99555, -17.2901
  105,'1           ', 115.0000,1,   1,   1,   1,1.02206, -12.9862
  107,'1           ', 115.0000,1,   1,   1,   1,1.00919, -16.1117
  108,'1           ', 115.0000,2,   1,   1,   1,0.99000, -20.2836
  109,'1           ', 115.0000,1,   1,   1,   1,0.97489, -26.2439
  110,'1           ', 115.0000,1,   1,   1,   1,0.97286, -24.8287
  112,'1           ', 115.0000,1,   1,   1,   1,0.97256, -28.9055
  113,'1           ', 115.0000,1,   1,   1,   1,0.97015, -25.7620
  114,'1           ', 115.0000,1,   1,   1,   1,0.97473, -28.8111
  115,'2           ', 115.0000,1,   2,   2,   1,0.91874,  11.5943
  116,'2           ', 115.0000,1,   2,   2,   1,0.98060,  18.9355
  117,'2           ', 115.0000,1,   2,   2,   1,0.90894,  25.0669
  118,'2           ', 115.0000,1,   2,   2,   1,0.90390,  26.2112
  119,'2           ', 115.0000,2,   2,   2,   1,1.04350,  40.9874
  120,'2           ', 115.0000,1,   2,   2,   1,0.99819,  37.7266
  121,'2           ', 115.0000,1,   2,   2,   1,0.84844,  14.9882
  122,'2           ', 115.0000,1,   2,   2,   1,0.89643,   9.2422
  123,'2           ', 115.0000,1,   2,   2,   1,0.92055,   4.2266
  124,'2           ', 115.0000,2,   2,   2,   1,0.96343,  15.6140
  125,'2           ', 115.0000,2,   2,   2,   1,0.94456,  -6.2382
  126,'2           ', 115.0000,1,   2,   2,   1,0.94291,  -1.5315
  127,'2           ', 230.0000,1,   2,   2,   1,0.97581,  -7.1534
  128,'2           ', 230.0000,1,   2,   2,   1,0.98979,  -5.1198
  129,'2           ', 230.0000,1,   2,   2,   1,0.98756,  -4.2630
  130,'2           ', 230.0000,1,   2,   2,   1,1.01249,   6.3760
  131,'2           ', 230.0000,1,   2,   2,   1,0.98224,   6.7146
  132,'2           ', 230.0000,1,   2,   2,   1,0.99655,   4.6540
  133,'2           ', 230.0000,1,   2,   2,   1,0.99113,  -7.3601
  134,'2           ', 230.0000,1,   2,   2,   1,1.01079,  -6.3589
  135,'2           ', 230.0000,1,   2,   2,   1,1.01324,  -6.4968
  136,'2           ', 230.0000,1,   2,   2,   1,1.04597,  -1.1352
  137,'2           ', 230.0000,1,   2,   2,   1,1.04255,  -7.3997
  138,'2           ', 230.0000,2,   2,   2,   1,1.05151, -16.8541
  139,'2           ', 115.0000,1,   2,   2,   1,1.01037,  -9.3055
  140,'2           ', 230.0000,1,   2,   2,   1,1.03987,  -9.1853
  141,'2           ', 230.0000,2,   2,   2,   1,1.05100,  -5.4801
  142,'2           ', 230.0000,1,   2,   2,   1,1.01372,  -7.5156
  143,'2           ', 230.0000,2,   2,   2,   1,1.04350,  -0.1705
  144,'2           ', 230.0000,1,   2,   2,   1,1.01667,  -3.1490
  145,'2           ', 230.0000,1,   2,   2,   1,1.00757,  -4.8407
  146,'2           ', 230.0000,2,   2,   2,   1,1.05238,  -0.7295
  147,'2           ', 230.0000,2,   2,   2,   1,1.05280,   3.2255
  148,'2           ', 230.0000,1,   2,   2,   1,1.05765,  -4.0167
  149,'2           ', 230.0000,2,   2,   2,   1,1.07318,   0.8516
  150,'2           ', 230.0000,1,   2,   2,   1,0.98276,   7.0001
  151,'2           ', 230.0000,1,   2,   2,   1,0.99817,   5.0557
  152,'2           ', 230.0000,2,   2,   2,   1,1.05350,   6.1871
  153,'2           ', 230.0000,2,   2,   2,   1,1.04350,   6.4661
  154,'2           ', 115.0000,1,   2,   2,   1,0.96522,  -6.2025
  155,'2           ', 230.0000,1,   2,   2,   1,1.01436,   1.9887
  156,'2           ', 115.0000,2,   2,   2,   1,0.95975,   0.4011
  157,'2           ', 230.0000,1,   2,   2,   1,0.91199,  10.9792
  158,'2           ', 230.0000,1,   2,   2,   1,0.92047,  10.5047
  159,'2           ', 230.0000,1,   2,   2,   1,0.90086,  15.3234
  160,'2           ', 230.0000,1,   2,   2,   1,0.93490,  13.2731
  161,'2           ', 230.0000,1,   2,   2,   1,1.03473,   4.5979
  162,'2           ', 230.0000,1,   2,   2,   1,0.98957,  13.5732
  163,'2           ', 230.0000,1,   2,   2,   1,1.03582,  -2.6418
  164,'2           ', 230.0000,1,   2,   2,   1,0.98053,   4.6881
  165,'2           ', 230.0000,1,   2,   2,   1,0.99898,  21.4044
  166,'2           ', 230.0000,1,   2,   2,   1,0.99657,  25.3232
  167,'2           ', 230.0000,1,   2,   2,   1,0.95601,  -6.8439
  168,'2           ', 230.0000,1,   2,   2,   1,0.98981,  -5.1456
  169,'2           ', 230.0000,1,   2,   2,   1,0.97142,  -6.7142
  170,'2           ', 115.0000,2,   2,   2,   1,0.92178,   1.2980
  171,'2           ', 115.0000,2,   2,   2,   1,0.97173, -11.9363
  172,'2           ', 115.0000,1,   2,   2,   1,1.02388, -11.7537
  173,'2           ', 115.0000,1,   2,   2,   1,0.98233, -17.9219
  174,'2           ', 115.0000,1,   2,   2,   1,1.06197,  -8.1796
  175,'2           ', 115.0000,1,   2,   2,   1,0.97148, -11.9936
  176,'2           ', 115.0000,2,   2,   2,   1,1.05220,  -0.1080
  177,'2           ', 115.0000,2,   2,   2,   1,1.00754,  -4.0830
  178,'2           ', 115.0000,1,   2,   2,   1,0.93917, -11.1910
  179,'2           ', 115.0000,1,   2,   2,   1,0.96873, -13.9641
  180,'2           ', 115.0000,1,   2,   2,   1,0.97874,  -7.7559
  181,'2           ', 230.0000,1,   2,   2,   1,1.04667,  -7.9215
  182,'2           ', 230.0000,1,   2,   2,   1,1.04216,  -9.9396
  183,'2           ', 115.0000,1,   2,   2,   1,0.97144,   3.0585
  184,'2           ', 230.0000,1,   2,   2,   1,1.03415,  -5.1828
  185,'2           ', 230.0000,2,   2,   2,   1,1.05220,  -2.6826
  186,'2           ', 230.0000,2,   2,   2,   1,1.06500,  -4.1548
  187,'2           ', 230.0000,2,   2,   2,   1,1.06500,  -5.1761
  188,'2           ', 230.0000,1,   2,   2,   1,1.04910,  -7.2618
  189,'3           ',  66.0000,1,   3,   3,   1,0.99753, -26.2433
  190,'3           ', 345.0000,2,   3,   3,   1,1.05510, -21.0436
  191,'3           ', 230.0000,2,   3,   3,   1,1.04350,  11.8237
  192,'3           ', 230.0000,1,   3,   3,   1,0.93745, -11.6056
  193,'3           ',  66.0000,1,   3,   3,   1,0.98964, -26.4848
  194,'3           ', 345.0000,1,   3,   3,   1,1.04866, -19.6311
  195,'3           ', 345.0000,1,   3,   3,   1,1.03557, -21.2084
  196,'3           ', 115.0000,1,   3,   3,   1,0.96947, -25.7315
  197,'3           ', 115.0000,1,   3,   3,   1,0.99067, -24.1343
  198,'3           ', 115.0000,2,   3,   3,   1,1.01500, -21.0007
  199,'3           ', 115.0000,1,   3,   3,   1,0.95284, -26.4599
  200,'3           ', 115.0000,1,   3,   3,   1,0.95508, -26.3496
  201,'1           ',  66.0000,1,   1,   1,   1,0.96910, -27.9094
  202,'3           ',  66.0000,1,   3,   3,   1,0.99081, -25.7517
  203,'3           ', 115.0000,1,   3,   3,   1,1.00331, -22.7695
  204,'3           ',  66.0000,1,   3,   3,   1,0.97175, -26.1024
  205,'3           ',  66.0000,1,   3,   3,   1,0.98377, -26.4576
  206,'3           ',  66.0000,1,   3,   3,   1,0.99939, -27.7176
  207,'1           ',  66.0000,1,   1,   1,   1,1.01412, -27.7133
  208,'3           ',  66.0000,1,   3,   3,   1,0.99283, -26.6636
  209,'3           ',  66.0000,1,   3,   3,   1,0.99991, -26.0593
  210,'3           ', 115.0000,1,   3,   3,   1,0.97881, -24.6339
  211,'3           ', 115.0000,1,   3,   3,   1,1.00161, -23.7351
  212,'3           ', 138.0000,1,   3,   3,   1,1.01312, -22.9282
  213,'3           ',  16.5000,2,   3,   3,   1,1.01000, -12.0965
  214,'3           ', 138.0000,1,   3,   3,   1,0.99187, -17.9552
  215,'3           ', 138.0000,1,   3,   3,   1,0.98662, -20.6559
  216,'3           ', 138.0000,1,   3,   3,   1,0.97513, -22.9525
  217,'3           ', 138.0000,1,   3,   3,   1,1.02150, -22.6227
  218,'3           ', 138.0000,1,   3,   3,   1,1.00751, -23.0519
  219,'3           ', 345.0000,1,   3,   3,   1,1.05535, -21.5728
  220,'3           ', 138.0000,2,   3,   3,   1,1.00800, -22.1504
  221,'3           ', 138.0000,2,   3,   3,   1,1.00000, -22.9143
...
0 / END OF BUS DATA, BEGIN LOAD DATA
    1,'1 ',1,   1,   1,    90.000,    49.000,     0.000,     0.000,     0.000,    -0.000,   1,1
    2,'1 ',1,   1,   1,    56.000,    15.000,     0.000,     0.000,     0.000,    -0.000,   1,1
    3,'1 ',1,   1,   1,    20.000,     0.000,     0.000,     0.000,     0.000,    -0.000,   1,1
    5,'1 ',1,   1,   1,   353.000,   130.000,     0.000,     0.000,     0.000,    -0.000,   1,1
    6,'1 ',1,   1,   1,   120.000,    41.000,     0.000,     0.000,     0.000,    -0.000,   1,1
    8,'1 ',1,   1,   1,    58.000,    14.000,     0.000,     0.000,     0.000,    -0.000,   1,1
    9,'1 ',1,   1,   1,    96.000,    43.000,     0.000,     0.000,     0.000,    -0.000,   1,1
   10,'1 ',1,   1,   1,   148.000,    33.000,     0.000,     0.000,     0.000,    -0.000,   1,1
   11,'1 ',1,   1,   1,    83.000,    21.000,     0.000,     0.000,     0.000,    -0.000,   1,1
   13,'1 ',1,   1,   1,    58.000,    10.000,     0.000,     0.000,     0.000,    -0.000,   1,1
   14,'1 ',1,   1,   1,   160.000,    60.000,     0.000,     0.000,     0.000,    -0.000,   1,1
   15,'1 ',1,   1,   1,   126.700,    23.000,     0.000,     0.000,     0.000,    -0.000,   1,1
   17,'1 ',1,   1,   1,   561.000,   220.000,     0.000,     0.000,     0.000,    -0.000,   1,1
   20,'1 ',1,   1,   1,   595.000,   120.000,     0.000,     0.000,     0.000,    -0.000,   1,1
   21,'1 ',1,   1,   1,    77.000,     1.000,     0.000,     0.000,     0.000,    -0.000,   1,1
   22,'1 ',1,   1,   1,    81.000,    23.000,     0.000,     0.000,     0.000,    -0.000,   1,1
   23,'1 ',1,   1,   1,    21.000,     7.000,     0.000,     0.000,     0.000,    -0.000,   1,1
   25,'1 ',1,   1,   1,    45.000,    12.000,     0.000,     0.000,     0.000,    -0.000,   1,1
   26,'1 ',1,   1,   1,    28.000,     9.000,     0.000,     0.000,     0.000,    -0.000,   1,1
   27,'1 ',1,   1,   1,    69.000,    13.000,     0.000,     0.000,     0.000,    -0.000,   1,1
   33,'1 ',1,   1,   1,    55.000,     6.000,     0.000,     0.000,     0.000,    -0.000,   1,1
   37,'1 ',1,   1,   1,    85.000,    32.000,     0.000,     0.000,     0.000,    -0.000,   1,1
   38,'1 ',1,   1,   1,   155.000,    18.000,     0.000,     0.000,     0.000,    -0.000,   1,1
   40,'1 ',1,   1,   1,    46.000,   -21.000,     0.000,     0.000,     0.000,    -0.000,   1,1
   41,'1 ',1,   1,   1,    86.000,     0.000,     0.000,     0.000,     0.000,    -0.000,   1,1
   43,'1 ',1,   1,   1,    39.000,     9.000,     0.000,     0.000,     0.000,    -0.000,   1,1
   44,'1 ',1,   1,   1,   195.000,    29.000,     0.000,     0.000,     0.000,    -0.000,   1,1
   47,'1 ',1,   1,   1,    58.000,    11.800,     0.000,     0.000,     0.000,    -0.000,   1,1
   48,'1 ',1,   1,   1,    41.000,    19.000,     0.000,     0.000,     0.000,    -0.000,   1,1
   49,'1 ',1,   1,   1,    92.000,    26.000,     0.000,     0.000,     0.000,    -0.000,   1,1
   51,'1 ',1,   1,   1,    -5.000,     5.000,     0.000,     0.000,     0.000,    -0.000,   1,1
   52,'1 ',1,   1,   1,    61.000,    28.000,     0.000,     0.000,     0.000,    -0.000,   1,1
   53,'1 ',1,   1,   1,    69.000,     3.000,     0.000,     0.000,     0.000,    -0.000,   1,1
   54,'1 ',1,   1,   1,    10.000,     1.000,     0.000,     0.000,     0.000,    -0.000,   1,1
   55,'1 ',1,   1,   1,    22.000,    10.000,     0.000,     0.000,     0.000,    -0.000,   1,1
   57,'1 ',1,   1,   1,    98.000,    20.000,     0.000,     0.000,     0.000,    -0.000,   1,1
   58,'1 ',1,   1,   1,    14.000,     1.000,     0.000,     0.000,     0.000,    -0.000,   1,1
   59,'1 ',1,   1,   1,   218.000,   106.000,     0.000,     0.000,     0.000,    -0.000,   1,1
   61,'1 ',1,   1,   1,   227.000,   110.000,     0.000,     0.000,     0.000,    -0.000,   1,1
   63,'1 ',1,   1,   1,    70.000,    30.000,     0.000,     0.000,     0.000,    -0.000,   1,1
   70,'1 ',1,   1,   1,    56.000,    20.000,     0.000,     0.000,     0.000,    -0.000,   1,1
   71,'1 ',1,   1,   1,   116.000,    38.000,     0.000,     0.000,     0.000,    -0.000,   1,1
   72,'1 ',1,   1,   1,    57.000,    19.000,     0.000,     0.000,     0.000,    -0.000,   1,1
   73,'1 ',1,   1,   1,   224.000,    71.000,     0.000,     0.000,     0.000,    -0.000,   1,1
   76,'1 ',1,   1,   1,   208.000,   107.000,     0.000,     0.000,     0.000,    -0.000,   1,1
   77,'1 ',1,   1,   1,    74.000,    28.000,     0.000,     0.000,     0.000,    -0.000,   1,1
   79,'1 ',1,   1,   1,    48.000,    14.000,     0.000,     0.000,     0.000,    -0.000,   1,1
   80,'1 ',1,   1,   1,    28.000,     7.000,     0.000,     0.000,     0.000,    -0.000,   1,1
   84,'1 ',1,   1,   1,    37.000,    13.000,     0.000,     0.000,     0.000,    -0.000,   1,1
   89,'1 ',1,   1,   1,    44.200,     0.000,     0.000,     0.000,     0.000,    -0.000,   1,1
   90,'1 ',1,   1,   1,    66.000,     0.000,     0.000,     0.000,     0.000,    -0.000,   1,1
   91,'1 ',1,   1,   1,    17.400,     0.000,     0.000,     0.000,     0.000,    -0.000,   1,1
   92,'1 ',1,   1,   1,    15.800,     0.000,     0.000,     0.000,     0.000,    -0.000,   1,1
   94,'1 ',1,   1,   1,    60.300,     0.000,     0.000,     0.000,     0.000,    -0.000,   1,1
   97,'1 ',1,   1,   1,    39.900,     0.000,     0.000,     0.000,     0.000,    -0.000,   1,1
   98,'1 ',1,   1,   1,    66.700,     0.000,     0.000,     0.000,     0.000,    -0.000,   1,1
   99,'1 ',1,   1,   1,    83.500,     0.000,     0.000,     0.000,     0.000,    -0.000,   1,1
  102,'1 ',1,   1,   1,    77.800,     0.000,     0.000,     0.000,     0.000,    -0.000,   1,1
  103,'1 ',1,   1,   1,    32.000,     0.000,     0.000,     0.000,     0.000,    -0.000,   1,1
  104,'1 ',1,   1,   1,     8.600,     0.000,     0.000,     0.000,     0.000,    -0.000,   1,1
  105,'1 ',1,   1,   1,    49.600,     0.000,     0.000,     0.000,     0.000,    -0.000,   1,1
  107,'1 ',1,   1,   1,     4.600,     0.000,     0.000,     0.000,     0.000,    -0.000,   1,1
  108,'1 ',1,   1,   1,   112.100,     0.000,     0.000,     0.000,     0.000,    -0.000,   1,1
  109,'1 ',1,   1,   1,    30.700,     0.000,     0.000,     0.000,     0.000,    -0.000,   1,1
  110,'1 ',1,   1,   1,    63.000,     0.000,     0.000,     0.000,     0.000,    -0.000,   1,1
  112,'1 ',1,   1,   1,    19.600,     0.000,     0.000,     0.000,     0.000,    -0.000,   1,1
  113,'1 ',1,   1,   1,    26.200,     0.000,     0.000,     0.000,     0.000,    -0.000,   1,1
  114,'1 ',1,   1,   1,    18.200,     0.000,     0.000,     0.000,     0.000,    -0.000,   1,1
  118,'1 ',1,   2,   2,    14.100,   650.000,     0.000,     0.000,     0.000,    -0.000,   1,1
  121,'1 ',1,   2,   2,   535.000,    55.000,     0.000,     0.000,     0.000,    -0.000,   1,1
  122,'1 ',1,   2,   2,   229.100,    11.800,     0.000,     0.000,     0.000,    -0.000,   1,1
  123,'1 ',1,   2,   2,    78.000,     1.400,     0.000,     0.000,     0.000,    -0.000,   1,1
  124,'1 ',1,   2,   2,   276.400,    59.300,     0.000,     0.000,     0.000,    -0.000,   1,1
  125,'1 ',1,   2,   2,   514.800,    82.700,     0.000,     0.000,     0.000,    -0.000,   1,1
  126,'1 ',1,   2,   2,    57.900,     5.100,     0.000,     0.000,     0.000,    -0.000,   1,1
  127,'1 ',1,   2,   2,   380.800,    37.000,     0.000,     0.000,     0.000,    -0.000,   1,1
  135,'1 ',1,   2,   2,   169.200,    41.600,     0.000,     0.000,     0.000,    -0.000,   1,1
  136,'1 ',1,   2,   2,    55.200,    18.200,     0.000,     0.000,     0.000,    -0.000,   1,1
  137,'1 ',1,   2,   2,   273.600,    99.800,     0.000,     0.000,     0.000,    -0.000,   1,1
  138,'1 ',1,   2,   2,   826.700,   135.200,     0.000,     0.000,     0.000,    -0.000,   1,1
  139,'1 ',1,   2,   2,   595.000,    83.300,     0.000,     0.000,     0.000,    -0.000,   1,1
  140,'1 ',1,   2,   2,   387.700,   114.700,     0.000,     0.000,     0.000,    -0.000,   1,1
  141,'1 ',1,   2,   2,   145.000,    58.000,     0.000,     0.000,     0.000,    -0.000,   1,1
  142,'1 ',1,   2,   2,    56.500,    24.500,     0.000,     0.000,     0.000,    -0.000,   1,1
  143,'1 ',1,   2,   2,    89.500,    35.500,     0.000,     0.000,     0.000,    -0.000,   1,1
  145,'1 ',1,   2,   2,    24.000,    14.000,     0.000,     0.000,     0.000,    -0.000,   1,1
  148,'1 ',1,   2,   2,    63.000,    25.000,     0.000,     0.000,     0.000,    -0.000,   1,1
  152,'1 ',1,   2,   2,    17.000,     9.000,     0.000,     0.000,     0.000,    -0.000,   1,1
  154,'1 ',1,   2,   2,    70.000,     5.000,     0.000,     0.000,     0.000,    -0.000,   1,1
  155,'1 ',1,   2,   2,   200.000,    50.000,     0.000,     0.000,     0.000,    -0.000,   1,1
  156,'1 ',1,   2,   2,    75.000,    50.000,     0.000,     0.000,     0.000,    -0.000,   1,1
  157,'1 ',1,   2,   2,   123.500,   -24.300,     0.000,     0.000,     0.000,    -0.000,   1,1
  159,'1 ',1,   2,   2,    33.000,    16.500,     0.000,     0.000,     0.000,    -0.000,   1,1
  161,'1 ',1,   2,   2,    35.000,    15.000,     0.000,     0.000,     0.000,    -0.000,   1,1
  162,'1 ',1,   2,   2,    85.000,    24.000,     0.000,     0.000,     0.000,    -0.000,   1,1
  163,'1 ',1,   2,   2,     0.000,     0.400,     0.000,     0.000,     0.000,    -0.000,   1,1
  167,'1 ',1,   2,   2,   299.900,    95.700,     0.000,     0.000,     0.000,    -0.000,   1,1
  170,'1 ',1,   2,   2,   481.800,   205.000,     0.000,     0.000,     0.000,    -0.000,   1,1
  171,'1 ',1,   2,   2,   763.600,   291.100,     0.000,     0.000,     0.000,    -0.000,   1,1
  172,'1 ',1,   2,   2,    26.500,     0.000,     0.000,     0.000,     0.000,    -0.000,   1,1
  173,'1 ',1,   2,   2,   163.500,    43.000,     0.000,     0.000,     0.000,    -0.000,   1,1
  175,'1 ',1,   2,   2,   176.000,    83.000,     0.000,     0.000,     0.000,    -0.000,   1,1
  176,'1 ',1,   2,   2,     5.000,     4.000,     0.000,     0.000,     0.000,    -0.000,   1,1
  177,'1 ',1,   2,   2,    28.000,    12.000,     0.000,     0.000,     0.000,    -0.000,   1,1
  178,'1 ',1,   2,   2,   427.400,   173.600,     0.000,     0.000,     0.000,    -0.000,   1,1
  179,'1 ',1,   2,   2,    74.000,    29.000,     0.000,     0.000,     0.000,    -0.000,   1,1
  180,'1 ',1,   2,   2,    69.500,    49.300,     0.000,     0.000,     0.000,    -0.000,   1,1
  181,'1 ',1,   2,   2,    73.400,     0.000,     0.000,     0.000,     0.000,    -0.000,   1,1
  182,'1 ',1,   2,   2,   240.700,    89.000,     0.000,     0.000,     0.000,    -0.000,   1,1
  183,'1 ',1,   2,   2,    40.000,     4.000,     0.000,     0.000,     0.000,    -0.000,   1,1
  184,'1 ',1,   2,   2,   136.800,    16.600,     0.000,     0.000,     0.000,    -0.000,   1,1
  186,'1 ',1,   2,   2,    59.800,    24.300,     0.000,     0.000,     0.000,    -0.000,   1,1
  187,'1 ',1,   2,   2,    59.800,    24.300,     0.000,     0.000,     0.000,    -0.000,   1,1
  188,'1 ',1,   2,   2,   182.600,    43.600,     0.000,     0.000,     0.000,    -0.000,   1,1
  189,'1 ',1,   3,   3,     7.000,     2.000,     0.000,     0.000,     0.000,    -0.000,   1,1
  191,'1 ',1,   3,   3,   489.000,    53.000,     0.000,     0.000,     0.000,    -0.000,   1,1
  192,'1 ',1,   3,   3,   800.000,    72.000,     0.000,     0.000,     0.000,    -0.000,   1,1
  196,'1 ',1,   3,   3,    10.000,     3.000,     0.000,     0.000,     0.000,    -0.000,   1,1
  197,'1 ',1,   3,   3,    43.000,    14.000,     0.000,     0.000,     0.000,    -0.000,   1,1
  198,'1 ',1,   3,   3,    64.000,    21.000,     0.000,     0.000,     0.000,    -0.000,   1,1
  199,'1 ',1,   3,   3,    35.000,    12.000,     0.000,     0.000,     0.000,    -0.000,   1,1
  200,'1 ',1,   3,   3,    27.000,    12.000,     0.000,     0.000,     0.000,    -0.000,   1,1
  201,'1 ',1,   1,   1,    41.000,    14.000,     0.000,     0.000,     0.000,    -0.000,   1,1
  202,'1 ',1,   3,   3,    38.000,    13.000,     0.000,     0.000,     0.000,    -0.000,   1,1
  203,'1 ',1,   3,   3,    42.000,    14.000,     0.000,     0.000,     0.000,    -0.000,   1,1
  204,'1 ',1,   3,   3,    72.000,    24.000,     0.000,     0.000,     0.000,    -0.000,   1,1
  205,'1 ',1,   3,   3,     0.000,    -5.000,     0.000,     0.000,     0.000,    -0.000,   1,1
  206,'1 ',1,   3,   3,    12.000,     2.000,     0.000,     0.000,     0.000,    -0.000,   1,1
  207,'1 ',1,   1,   1,   -21.000,   -14.200,     0.000,     0.000,     0.000,    -0.000,   1,1
  208,'1 ',1,   3,   3,     7.000,     2.000,     0.000,     0.000,     0.000,    -0.000,   1,1
  209,'1 ',1,   3,   3,    38.000,    13.000,     0.000,     0.000,     0.000,    -0.000,   1,1
  211,'1 ',1,   3,   3,    96.000,     7.000,     0.000,     0.000,     0.000,    -0.000,   1,1
  214,'1 ',1,   3,   3,    22.000,    16.000,     0.000,     0.000,     0.000,    -0.000,   1,1
  215,'1 ',1,   3,   3,    47.000,    26.000,     0.000,     0.000,     0.000,    -0.000,   1,1
  216,'1 ',1,   3,   3,   176.000,   105.000,     0.000,     0.000,     0.000,    -0.000,   1,1
  217,'1 ',1,   3,   3,   100.000,    75.000,     0.000,     0.000,     0.000,    -0.000,   1,1
  218,'1 ',1,   3,   3,   131.000,    96.000,     0.000,     0.000,     0.000,    -0.000,   1,1
  220,'1 ',1,   3,   3,   285.000,   100.000,     0.000,     0.000,     0.000,    -0.000,   1,1
  221,'1 ',1,   3,   3,   171.000,    70.000,     0.000,     0.000,     0.000,    -0.000,   1,1
  222,'1 ',1,   3,   3,   328.000,   188.000,     0.000,     0.000,     0.000,    -0.000,   1,1
  223,'1 ',1,   3,   3,   428.000,   232.000,     0.000,     0.000,     0.000,    -0.000,   1,1
  224,'1 ',1,   3,   3,   173.000,    99.000,     0.000,     0.000,     0.000,    -0.000,   1,1
  225,'1 ',1,   3,   3,   410.000,    40.000,     0.000,     0.000,     0.000,    -0.000,   1,1
  227,'1 ',1,   3,   3,   538.000,   369.000,     0.000,     0.000,     0.000,    -0.000,   1,1
  228,'1 ',1,   3,   3,   223.000,   148.000,     0.000,     0.000,     0.000,    -0.000,   1,1
  229,'1 ',1,   3,   3,    96.000,    46.000,     0.000,     0.000,     0.000,    -0.000,   1,1
  231,'1 ',1,   3,   3,   159.000,   107.000,     0.000,     0.000,     0.000,    -0.000,   1,1
  232,'1 ',1,   3,   3,   448.000,   143.000,     0.000,     0.000,     0.000,    -0.000,   1,1
  233,'1 ',1,   3,   3,   404.000,   212.000,     0.000,     0.000,     0.000,    -0.000,   1,1
  234,'1 ',1,   3,   3,   572.000,   244.000,     0.000,     0.000,     0.000,    -0.000,   1,1
  235,'1 ',1,   3,   3,   269.000,   157.000,     0.000,     0.000,     0.000,    -0.000,   1,1
  238,'1 ',1,   3,   3,   255.000,   149.000,     0.000,     0.000,     0.000,    -0.000,   1,1
  243,'1 ',1,   3,   3,     8.000,     3.000,     0.000,     0.000,     0.000,    -0.000,   1,1
  245,'1 ',1,   3,   3,    61.000,    30.000,     0.000,     0.000,     0.000,    -0.000,   1,1
  246,'1 ',1,   3,   3,    77.000,    33.000,     0.000,     0.000,     0.000,    -0.000,   1,1
  247,'1 ',1,   3,   3,    61.000,    30.000,     0.000,     0.000,     0.000,    -0.000,   1,1
  248,'1 ',1,   3,   3,    29.000,    14.000,     0.000,     0.000,     0.000,    -0.000,   1,1
  249,'1 ',1,   3,   3,    29.000,    14.000,     0.000,     0.000,     0.000,    -0.000,   1,1
  250,'1 ',1,   3,   3,   -23.000,   -17.000,     0.000,     0.000,     0.000,    -0.000,   1,1
  281,'1 ',1,   3,   3,   -33.100,   -29.400,     0.000,     0.000,     0.000,    -0.000,   1,1
  319,'1 ',1,   1,   1,   115.800,   -24.000,     0.000,     0.000,     0.000,    -0.000,   1,1
  320,'1 ',1,   1,   1,     2.400,   -12.600,     0.000,     0.000,     0.000,    -0.000,   1,1
  322,'1 ',1,   1,   1,     2.400,    -3.900,     0.000,     0.000,     0.000,    -0.000,   1,1
  323,'1 ',1,   1,   1,   -14.900,    26.500,     0.000,     0.000,     0.000,    -0.000,   1,1
  324,'1 ',1,   1,   1,    24.700,    -1.200,     0.000,     0.000,     0.000,    -0.000,   1,1
  526,'1 ',1,   1,   1,   145.300,   -34.900,     0.000,     0.000,     0.000,    -0.000,   1,1
  528,'1 ',1,   1,   1,    28.100,   -20.500,     0.000,     0.000,     0.000,    -0.000,   1,1
  531,'1 ',1,   1,   1,    14.000,     2.500,     0.000,     0.000,     0.000,    -0.000,   1,1
  552,'1 ',1,   1,   1,   -11.100,    -1.400,     0.000,     0.000,     0.000,    -0.000,   1,1
  562,'1 ',1,   1,   1,    50.500,    17.400,     0.000,     0.000,     0.000,    -0.000,   1,1
  609,'1 ',1,   1,   1,    29.600,     0.600,     0.000,     0.000,     0.000,    -0.000,   1,1
  664,'1 ',1,   3,   3,  -113.700,    76.700,     0.000,     0.000,     0.000,    -0.000,   1,1
 1190,'1 ',1,   1,   1,   100.310,    29.170,     0.000,     0.000,     0.000,    -0.000,   1,1
 1200,'1 ',1,   1,   1,  -100.000,    34.170,     0.000,     0.000,     0.000,    -0.000,   1,1
 9003,'1 ',1,   1,   9,     2.710,     0.940,     0.000,     0.000,     0.000,    -0.000,   1,1
 9004,'1 ',1,   1,   9,     0.860,     0.280,     0.000,     0.000,     0.000,    -0.000,   1,1
 9021,'1 ',1,   1,   9,     4.750,     1.560,     0.000,     0.000,     0.000,    -0.000,   1,1
 9022,'1 ',1,   1,   9,     1.530,     0.530,     0.000,     0.000,     0.000,    -0.000,   1,1
 9024,'1 ',1,   1,   9,     1.350,     0.470,     0.000,     0.000,     0.000,    -0.000,   1,1
 9025,'1 ',1,   1,   9,     0.450,     0.160,     0.000,     0.000,     0.000,    -0.000,   1,1
 9026,'1 ',1,   1,   9,     0.450,     0.160,     0.000,     0.000,     0.000,    -0.000,   1,1
 9031,'1 ',1,   1,   9,     1.840,     0.640,     0.000,     0.000,     0.000,    -0.000,   1,1
 9032,'1 ',1,   1,   9,     1.390,     0.480,     0.000,     0.000,     0.000,    -0.000,   1,1
 9033,'1 ',1,   1,   9,     1.890,     0.650,     0.000,     0.000,     0.000,    -0.000,   1,1
 9034,'1 ',1,   1,   9,     1.550,     0.540,     0.000,     0.000,     0.000,    -0.000,   1,1
 9035,'1 ',1,   1,   9,     1.660,     0.580,     0.000,     0.000,     0.000,    -0.000,   1,1
 9036,'1 ',1,   1,   9,     3.030,     1.000,     0.000,     0.000,     0.000,    -0.000,   1,1
 9037,'1 ',1,   1,   9,     1.860,     0.640,     0.000,     0.000,     0.000,    -0.000,   1,1
 9038,'1 ',1,   1,   9,     2.580,     0.890,     0.000,     0.000,     0.000,    -0.000,   1,1
 9041,'1 ',1,   1,   9,     1.010,     0.350,     0.000,     0.000,     0.000,    -0.000,   1,1
 9042,'1 ',1,   1,   9,     0.810,     0.280,     0.000,     0.000,     0.000,    -0.000,   1,1
 9043,'1 ',1,   1,   9,     1.600,     0.520,     0.000,     0.000,     0.000,    -0.000,   1,1
 9052,'1 ',1,   1,   9,    30.000,    23.000,     0.000,     0.000,     0.000,    -0.000,   1,1
 9071,'1 ',1,   1,   9,     1.020,     0.350,     0.000,     0.000,     0.000,    -0.000,   1,1
 9072,'1 ',1,   1,   9,     1.020,     0.350,     0.000,     0.000,     0.000,    -0.000,   1,1
 9121,'1 ',1,   1,   9,     3.800,     1.250,     0.000,     0.000,     0.000,    -0.000,   1,1
 9533,'1 ',1,   1,   9,     1.190,     0.410,     0.000,     0.000,     0.000,    -0.000,   1,1
0 / END OF LOAD DATA, BEGIN FIXED SHUNT DATA
   117,' 1', 1,     0.000,   325.000
   120,' 1', 1,     0.000,    55.000
   154,' 1', 1,     0.000,    34.500
   164,' 1', 1,     0.000,  -212.000
   166,' 1', 1,     0.000,  -103.000
   173,' 1', 1,     0.000,    53.000
   179,' 1', 1,     0.000,    45.000
   190,' 1', 1,     0.000,  -150.000
   231,' 1', 1,     0.000,  -300.000
   238,' 1', 1,     0.000,  -150.000
   240,' 1', 1,     0.000,  -140.000
   248,' 1', 1,     0.000,    45.600
  9003,' 1', 1,     0.140,     2.400
  9022,' 1', 1,     0.080,     0.000
  9024,' 1', 1,     0.070,     0.000
  9025,' 1', 1,     0.020,     0.000
  9026,' 1', 1,     0.020,     0.000
  9031,' 1', 1,     0.100,     0.000
  9032,' 1', 1,     0.070,     0.000
  9033,' 1', 1,     0.100,     0.000
  9034,' 1', 1,     0.080,     1.720
  9035,' 1', 1,     0.090,     0.000
  9037,' 1', 1,     0.100,     0.000
  9038,' 1', 1,     0.140,     0.000
  9041,' 1', 1,     0.050,     0.000
  9042,' 1', 1,     0.040,     0.000
  9071,' 1', 1,     0.050,     0.000
  9072,' 1', 1,     0.050,     0.000
  9533,' 1', 1,     0.100,     0.000
0 / END OF FIXED SHUNT DATA, BEGIN GENERATOR DATA
    8,'1 ',    -5.000,    10.000,    10.000,   -10.000,1.01530,    0,   100.000,   0.00000,   1.00000,   0.00000,   0.00000,1.00000,1,  100.0,  9999.000, -9999.000,   1,1.0000,   0,1.0000,   0,1.0000,   0,1.0000,0, 1.0000
   10,'1 ',    -5.000,    20.000,    20.000,   -20.000,1.02050,    0,   100.000,   0.00000,   1.00000,   0.00000,   0.00000,1.00000,1,  100.0,  9999.000, -9999.000,   1,1.0000,   0,1.0000,   0,1.0000,   0,1.0000,0, 1.0000
   20,'1 ',   -10.000,    20.000,    20.000,   -20.000,1.00100,    0,   100.000,   0.00000,   1.00000,   0.00000,   0.00000,1.00000,1,  100.0,  9999.000, -9999.000,   1,1.0000,   0,1.0000,   0,1.0000,   0,1.0000,0, 1.0000
   63,'1 ',     0.000,    24.468,    25.000,   -25.000,0.95830,    0,   100.000,   0.00000,   1.00000,   0.00000,   0.00000,1.00000,1,  100.0,  9999.000, -9999.000,   1,1.0000,   0,1.0000,   0,1.0000,   0,1.0000,0, 1.0000
   76,'1 ',     0.000,    35.000,    35.000,    12.000,0.96320,    0,   100.000,   0.00000,   1.00000,   0.00000,   0.00000,1.00000,1,  100.0,  9999.000, -9999.000,   1,1.0000,   0,1.0000,   0,1.0000,   0,1.0000,0, 1.0000
   84,'1 ',   375.000,   133.073,   240.000,  -240.000,1.02500,    0,   100.000,   0.00000,   1.00000,   0.00000,   0.00000,1.00000,1,  100.0,  9999.000, -9999.000,   1,1.0000,   0,1.0000,   0,1.0000,   0,1.0000,0, 1.0000
   91,'1 ',   155.000,    45.530,    96.000,   -11.000,1.05200,    0,   100.000,   0.00000,   1.00000,   0.00000,   0.00000,1.00000,1,  100.0,  9999.000, -9999.000,   1,1.0000,   0,1.0000,   0,1.0000,   0,1.0000,0, 1.0000
   92,'1 ',   290.000,    31.853,   153.000,  -153.000,1.05200,    0,   100.000,   0.00000,   1.00000,   0.00000,   0.00000,1.00000,1,  100.0,  9999.000, -9999.000,   1,1.0000,   0,1.0000,   0,1.0000,   0,1.0000,0, 1.0000
   98,'1 ',    68.000,   -10.250,    56.000,   -30.000,1.00000,    0,   100.000,   0.00000,   1.00000,   0.00000,   0.00000,1.00000,1,  100.0,  9999.000, -9999.000,   1,1.0000,   0,1.0000,   0,1.0000,   0,1.0000,0, 1.0000
  108,'1 ',   117.000,    21.596,    77.000,   -24.000,0.99000,    0,   100.000,   0.00000,   1.00000,   0.00000,   0.00000,1.00000,1,  100.0,  9999.000, -9999.000,   1,1.0000,   0,1.0000,   0,1.0000,   0,1.0000,0, 1.0000
  119,'1 ',  1930.000,  1366.663,  1500.000,  -500.000,1.04350,    0,   100.000,   0.00000,   1.00000,   0.00000,   0.00000,1.00000,1,  100.0,  9999.000, -9999.000,   1,1.0000,   0,1.0000,   0,1.0000,   0,1.0000,0, 1.0000
  124,'1 ',   240.000,   120.000,   120.000,   -60.000,1.02330,    0,   100.000,   0.00000,   1.00000,   0.00000,   0.00000,1.00000,1,  100.0,  9999.000, -9999.000,   1,1.0000,   0,1.0000,   0,1.0000,   0,1.0000,0, 1.0000
  125,'1 ',     0.000,   200.000,   200.000,   -25.000,1.01030,    0,   100.000,   0.00000,   1.00000,   0.00000,   0.00000,1.00000,1,  100.0,  9999.000, -9999.000,   1,1.0000,   0,1.0000,   0,1.0000,   0,1.0000,0, 1.0000
  138,'1 ',  -925.034,   350.000,   350.000,  -125.000,1.05500,    0,   100.000,   0.00000,   1.00000,   0.00000,   0.00000,1.00000,1,  100.0,  9999.000, -9999.000,   1,1.0000,   0,1.0000,   0,1.0000,   0,1.0000,0, 1.0000
  141,'1 ',   281.000,    70.012,    75.000,   -50.000,1.05100,    0,   100.000,   0.00000,   1.00000,   0.00000,   0.00000,1.00000,1,  100.0,  9999.000, -9999.000,   1,1.0000,   0,1.0000,   0,1.0000,   0,1.0000,0, 1.0000
  143,'1 ',   696.000,   124.797,   300.000,  -100.000,1.04350,    0,   100.000,   0.00000,   1.00000,   0.00000,   0.00000,1.00000,1,  100.0,  9999.000, -9999.000,   1,1.0000,   0,1.0000,   0,1.0000,   0,1.0000,0, 1.0000
  146,'1 ',    84.000,    35.000,    35.000,   -15.000,1.05280,    0,   100.000,   0.00000,   1.00000,   0.00000,   0.00000,1.00000,1,  100.0,  9999.000, -9999.000,   1,1.0000,   0,1.0000,   0,1.0000,   0,1.0000,0, 1.0000
  147,'1 ',   217.000,   -47.694,   100.000,   -50.000,1.05280,    0,   100.000,   0.00000,   1.00000,   0.00000,   0.00000,1.00000,1,  100.0,  9999.000, -9999.000,   1,1.0000,   0,1.0000,   0,1.0000,   0,1.0000,0, 1.0000
  149,'1 ',   103.000,    50.000,    50.000,   -25.000,1.07350,    0,   100.000,   0.00000,   1.00000,   0.00000,   0.00000,1.00000,1,  100.0,  9999.000, -9999.000,   1,1.0000,   0,1.0000,   0,1.0000,   0,1.0000,0, 1.0000
  152,'1 ',   372.000,   -48.291,   175.000,   -50.000,1.05350,    0,   100.000,   0.00000,   1.00000,   0.00000,   0.00000,1.00000,1,  100.0,  9999.000, -9999.000,   1,1.0000,   0,1.0000,   0,1.0000,   0,1.0000,0, 1.0000
  153,'1 ',   216.000,   -18.886,    90.000,   -50.000,1.04350,    0,   100.000,   0.00000,   1.00000,   0.00000,   0.00000,1.00000,1,  100.0,  9999.000, -9999.000,   1,1.0000,   0,1.0000,   0,1.0000,   0,1.0000,0, 1.0000
  156,'1 ',     0.000,    15.000,    15.000,   -10.000,0.96300,    0,   100.000,   0.00000,   1.00000,   0.00000,   0.00000,1.00000,1,  100.0,  9999.000, -9999.000,   1,1.0000,   0,1.0000,   0,1.0000,   0,1.0000,0, 1.0000
  170,'1 ',   205.000,    90.000,    90.000,   -40.000,0.92900,    0,   100.000,   0.00000,   1.00000,   0.00000,   0.00000,1.00000,1,  100.0,  9999.000, -9999.000,   1,1.0000,   0,1.0000,   0,1.0000,   0,1.0000,0, 1.0000
  171,'1 ',     0.000,   150.000,   150.000,   -50.000,0.98290,    0,   100.000,   0.00000,   1.00000,   0.00000,   0.00000,1.00000,1,  100.0,  9999.000, -9999.000,   1,1.0000,   0,1.0000,   0,1.0000,   0,1.0000,0, 1.0000
  176,'1 ',   228.000,    40.902,    90.000,   -45.000,1.05220,    0,   100.000,   0.00000,   1.00000,   0.00000,   0.00000,1.00000,1,  100.0,  9999.000, -9999.000,   1,1.0000,   0,1.0000,   0,1.0000,   0,1.0000,0, 1.0000
  177,'1 ',    84.000,    35.000,    35.000,   -15.000,1.00770,    0,   100.000,   0.00000,   1.00000,   0.00000,   0.00000,1.00000,1,  100.0,  9999.000, -9999.000,   1,1.0000,   0,1.0000,   0,1.0000,   0,1.0000,0, 1.0000
  185,'1 ',   200.000,    52.252,    80.000,   -50.000,1.05220,    0,   100.000,   0.00000,   1.00000,   0.00000,   0.00000,1.00000,1,  100.0,  9999.000, -9999.000,   1,1.0000,   0,1.0000,   0,1.0000,   0,1.0000,0, 1.0000
  186,'1 ',  1200.000,   318.750,   400.000,  -100.000,1.06500,    0,   100.000,   0.00000,   1.00000,   0.00000,   0.00000,1.00000,1,  100.0,  9999.000, -9999.000,   1,1.0000,   0,1.0000,   0,1.0000,   0,1.0000,0, 1.0000
  187,'1 ',  1200.000,   396.266,   400.000,  -100.000,1.06500,    0,   100.000,   0.00000,   1.00000,   0.00000,   0.00000,1.00000,1,  100.0,  9999.000, -9999.000,   1,1.0000,   0,1.0000,   0,1.0000,   0,1.0000,0, 1.0000
  190,'1 ',   475.000,   -65.519,   300.000,  -300.000,1.05510,    0,   100.000,   0.00000,   1.00000,   0.00000,   0.00000,1.00000,1,  100.0,  9999.000, -9999.000,   1,1.0000,   0,1.0000,   0,1.0000,   0,1.0000,0, 1.0000
  191,'1 ',  1973.000,   692.083,  1000.000, -1000.000,1.04350,    0,   100.000,   0.00000,   1.00000,   0.00000,   0.00000,1.00000,1,  100.0,  9999.000, -9999.000,   1,1.0000,   0,1.0000,   0,1.0000,   0,1.0000,0, 1.0000
  198,'1 ',   424.000,   101.143,   260.000,  -260.000,1.01500,    0,   100.000,   0.00000,   1.00000,   0.00000,   0.00000,1.00000,1,  100.0,  9999.000, -9999.000,   1,1.0000,   0,1.0000,   0,1.0000,   0,1.0000,0, 1.0000
  213,'1 ',   272.000,    44.072,   150.000,  -150.000,1.01000,    0,   100.000,   0.00000,   1.00000,   0.00000,   0.00000,1.00000,1,  100.0,  9999.000, -9999.000,   1,1.0000,   0,1.0000,   0,1.0000,   0,1.0000,0, 1.0000
  220,'1 ',   100.000,    35.907,    60.000,   -60.000,1.00800,    0,   100.000,   0.00000,   1.00000,   0.00000,   0.00000,1.00000,1,  100.0,  9999.000, -9999.000,   1,1.0000,   0,1.0000,   0,1.0000,   0,1.0000,0, 1.0000
  221,'1 ',   450.000,   160.372,   320.000,  -320.000,1.00000,    0,   100.000,   0.00000,   1.00000,   0.00000,   0.00000,1.00000,1,  100.0,  9999.000, -9999.000,   1,1.0000,   0,1.0000,   0,1.0000,   0,1.0000,0, 1.0000
  222,'1 ',   250.000,   161.461,   300.000,  -300.000,1.05000,    0,   100.000,   0.00000,   1.00000,   0.00000,   0.00000,1.00000,1,  100.0,  9999.000, -9999.000,   1,1.0000,   0,1.0000,   0,1.0000,   0,1.0000,0, 1.0000
  227,'1 ',   303.000,   263.019,   300.000,  -300.000,1.00000,    0,   100.000,   0.00000,   1.00000,   0.00000,   0.00000,1.00000,1,  100.0,  9999.000, -9999.000,   1,1.0000,   0,1.0000,   0,1.0000,   0,1.0000,0, 1.0000
  230,'1 ',   345.000,    42.581,   250.000,  -250.000,1.04000,    0,   100.000,   0.00000,   1.00000,   0.00000,   0.00000,1.00000,1,  100.0,  9999.000, -9999.000,   1,1.0000,   0,1.0000,   0,1.0000,   0,1.0000,0, 1.0000
  233,'1 ',   300.000,   132.587,   500.000,  -500.000,1.00000,    0,   100.000,   0.00000,   1.00000,   0.00000,   0.00000,1.00000,1,  100.0,  9999.000, -9999.000,   1,1.0000,   0,1.0000,   0,1.0000,   0,1.0000,0, 1.0000
  236,'1 ',   600.000,   300.000,   300.000,  -300.000,1.01650,    0,   100.000,   0.00000,   1.00000,   0.00000,   0.00000,1.00000,1,  100.0,  9999.000, -9999.000,   1,1.0000,   0,1.0000,   0,1.0000,   0,1.0000,0, 1.0000
  238,'1 ',   250.000,   164.181,   200.000,  -200.000,1.01000,    0,   100.000,   0.00000,   1.00000,   0.00000,   0.00000,1.00000,1,  100.0,  9999.000, -9999.000,   1,1.0000,   0,1.0000,   0,1.0000,   0,1.0000,0, 1.0000
  239,'1 ',   550.000,    68.385,   400.000,  -400.000,1.00000,    0,   100.000,   0.00000,   1.00000,   0.00000,   0.00000,1.00000,1,  100.0,  9999.000, -9999.000,   1,1.0000,   0,1.0000,   0,1.0000,   0,1.0000,0, 1.0000
  241,'1 ',   574.784,   -35.220,   600.000,  -600.000,1.05000,    0,   100.000,   0.00000,   1.00000,   0.00000,   0.00000,1.00000,1,  100.0,  9999.000, -9999.000,   1,1.0000,   0,1.0000,   0,1.0000,   0,1.0000,0, 1.0000
  242,'1 ',   170.000,    52.193,   100.000,    40.000,0.99300,    0,   100.000,   0.00000,   1.00000,   0.00000,   0.00000,1.00000,1,  100.0,  9999.000, -9999.000,   1,1.0000,   0,1.0000,   0,1.0000,   0,1.0000,0, 1.0000
  243,'1 ',    84.000,    52.324,    80.000,    40.000,1.01000,    0,   100.000,   0.00000,   1.00000,   0.00000,   0.00000,1.00000,1,  100.0,  9999.000, -9999.000,   1,1.0000,   0,1.0000,   0,1.0000,   0,1.0000,0, 1.0000
 7001,'1 ',   467.000,   147.249,   210.000,  -210.000,1.05070,    0,   100.000,   0.00000,   1.00000,   0.00000,   0.00000,1.00000,1,  100.0,  9999.000, -9999.000,   1,1.0000,   0,1.0000,   0,1.0000,   0,1.0000,0, 1.0000
 7002,'1 ',   623.000,   102.680,   280.000,  -280.000,1.05070,    0,   100.000,   0.00000,   1.00000,   0.00000,   0.00000,1.00000,1,  100.0,  9999.000, -9999.000,   1,1.0000,   0,1.0000,   0,1.0000,   0,1.0000,0, 1.0000
 7003,'1 ',  1210.000,   420.000,   420.000,  -420.000,1.03230,    0,   100.000,   0.00000,   1.00000,   0.00000,   0.00000,1.00000,1,  100.0,  9999.000, -9999.000,   1,1.0000,   0,1.0000,   0,1.0000,   0,1.0000,0, 1.0000
 7011,'1 ',   234.000,    56.470,   100.000,  -100.000,1.01450,    0,   100.000,   0.00000,   1.00000,   0.00000,   0.00000,1.00000,1,  100.0,  9999.000, -9999.000,   1,1.0000,   0,1.0000,   0,1.0000,   0,1.0000,0, 1.0000
 7012,'1 ',   372.000,   207.750,   224.000,  -224.000,1.05070,    0,   100.000,   0.00000,   1.00000,   0.00000,   0.00000,1.00000,1,  100.0,  9999.000, -9999.000,   1,1.0000,   0,1.0000,   0,1.0000,   0,1.0000,0, 1.0000
 7017,'1 ',   330.000,   350.000,   350.000,     0.000,1.05070,    0,   100.000,   0.00000,   1.00000,   0.00000,   0.00000,1.00000,1,  100.0,  9999.000, -9999.000,   1,1.0000,   0,1.0000,   0,1.0000,   0,1.0000,0, 1.0000
 7023,'1 ',   185.000,     8.156,   120.000,     0.000,1.05070,    0,   100.000,   0.00000,   1.00000,   0.00000,   0.00000,1.00000,1,  100.0,  9999.000, -9999.000,   1,1.0000,   0,1.0000,   0,1.0000,   0,1.0000,0, 1.0000
 7024,'1 ',   410.000,   109.349,   224.000,  -224.000,1.02900,    0,   100.000,   0.00000,   1.00000,   0.00000,   0.00000,1.00000,1,  100.0,  9999.000, -9999.000,   1,1.0000,   0,1.0000,   0,1.0000,   0,1.0000,0, 1.0000
 7039,'1 ',   500.000,   158.379,   200.000,  -200.000,1.05000,    0,   100.000,   0.00000,   1.00000,   0.00000,   0.00000,1.00000,1,  100.0,  9999.000, -9999.000,   1,1.0000,   0,1.0000,   0,1.0000,   0,1.0000,0, 1.0000
 7044,'1 ',    37.000,    41.608,    42.000,     0.000,1.01450,    0,   100.000,   0.00000,   1.00000,   0.00000,   0.00000,1.00000,1,  100.0,  9999.000, -9999.000,   1,1.0000,   0,1.0000,   0,1.0000,   0,1.0000,0, 1.0000
 7049,'1 ',   462.156,    40.836,     0.000,     0.000,1.05070,    0,   100.000,   0.00000,   1.00000,   0.00000,   0.00000,1.00000,1,  100.0,  9999.000, -9999.000,   1,1.0000,   0,1.0000,   0,1.0000,   0,1.0000,0, 1.0000
 7055,'1 ',    45.000,    24.895,    25.000,     0.000,0.99670,    0,   100.000,   0.00000,   1.00000,   0.00000,   0.00000,1.00000,1,  100.0,  9999.000, -9999.000,   1,1.0000,   0,1.0000,   0,1.0000,   0,1.0000,0, 1.0000
 7057,'1 ',   165.000,    89.278,    90.000,   -90.000,1.02120,    0,   100.000,   0.00000,   1.00000,   0.00000,   0.00000,1.00000,1,  100.0,  9999.000, -9999.000,   1,1.0000,   0,1.0000,   0,1.0000,   0,1.0000,0, 1.0000
 7061,'1 ',   400.000,   120.987,   150.000,  -150.000,1.01450,    0,   100.000,   0.00000,   1.00000,   0.00000,   0.00000,1.00000,1,  100.0,  9999.000, -9999.000,   1,1.0000,   0,1.0000,   0,1.0000,   0,1.0000,0, 1.0000
 7062,'1 ',   400.000,   147.396,   150.000,     0.000,1.00170,    0,   100.000,   0.00000,   1.00000,   0.00000,   0.00000,1.00000,1,  100.0,  9999.000, -9999.000,   1,1.0000,   0,1.0000,   0,1.0000,   0,1.0000,0, 1.0000
 7071,'1 ',   116.000,    87.000,    87.000,     0.000,0.98930,    0,   100.000,   0.00000,   1.00000,   0.00000,   0.00000,1.00000,1,  100.0,  9999.000, -9999.000,   1,1.0000,   0,1.0000,   0,1.0000,   0,1.0000,0, 1.0000
 7130,'1 ',  1292.000,   361.578,   600.000,  -100.000,1.05070,    0,   100.000,   0.00000,   1.00000,   0.00000,   0.00000,1.00000,1,  100.0,  9999.000, -9999.000,   1,1.0000,   0,1.0000,   0,1.0000,   0,1.0000,0, 1.0000
 7139,'1 ',   700.000,   292.364,   325.000,  -125.000,1.05070,    0,   100.000,   0.00000,   1.00000,   0.00000,   0.00000,1.00000,1,  100.0,  9999.000, -9999.000,   1,1.0000,   0,1.0000,   0,1.0000,   0,1.0000,0, 1.0000
 7166,'1 ',   553.000,   141.441,   300.000,  -200.000,1.01450,    0,   100.000,   0.00000,   1.00000,   0.00000,   0.00000,1.00000,1,  100.0,  9999.000, -9999.000,   1,1.0000,   0,1.0000,   0,1.0000,   0,1.0000,0, 1.0000
 9002,'1 ',    -4.200,     2.000,     2.000,    -2.000,0.99450,    0,   100.000,   0.00000,   1.00000,   0.00000,   0.00000,1.00000,1,  100.0,  9999.000, -9999.000,   1,1.0000,   0,1.0000,   0,1.0000,   0,1.0000,0, 1.0000
 9051,'1 ',   -35.810,    15.447,    17.350,   -17.350,1.00000,    0,   100.000,   0.00000,   1.00000,   0.00000,   0.00000,1.00000,1,  100.0,  9999.000, -9999.000,   1,1.0000,   0,1.0000,   0,1.0000,   0,1.0000,0, 1.0000
 9053,'1 ',   -26.480,    11.315,    12.830,   -12.800,1.00000,    0,   100.000,   0.00000,   1.00000,   0.00000,   0.00000,1.00000,1,  100.0,  9999.000, -9999.000,   1,1.0000,   0,1.0000,   0,1.0000,   0,1.0000,0, 1.0000
 9054,'1 ',    50.000,    19.813,    38.000,   -38.000,1.00000,    0,   100.000,   0.00000,   1.00000,   0.00000,   0.00000,1.00000,1,  100.0,  9999.000, -9999.000,   1,1.0000,   0,1.0000,   0,1.0000,   0,1.0000,0, 1.0000
 9055,'1 ',     8.000,     3.656,     6.000,    -6.000,1.00000,    0,   100.000,   0.00000,   1.00000,   0.00000,   0.00000,1.00000,1,  100.0,  9999.000, -9999.000,   1,1.0000,   0,1.0000,   0,1.0000,   0,1.0000,0, 1.0000
0 / END OF GENERATOR DATA, BEGIN BRANCH DATA
    1,     5,'1 ', 0.00100, 0.00600,0.00000,   0.00,   0.00,   0.00,  0.00000,  0.00000,  0.00000,  0.00000,1,1,   0.0,   1,1.0000,   0,1.0000,   0,1.0000,   0,1.0000
    2,     6,'1 ', 0.00100, 0.00900,0.00000,   0.00,   0.00,   0.00,  0.00000,  0.00000,  0.00000,  0.00000,1,1,   0.0,   1,1.0000,   0,1.0000,   0,1.0000,   0,1.0000
    2,     8,'1 ', 0.00600, 0.02700,0.05400,   0.00,   0.00,   0.00,  0.00000,  0.00000,  0.00000,  0.00000,1,1,   0.0,   1,1.0000,   0,1.0000,   0,1.0000,   0,1.0000
    3,     7,'1 ', 0.00000, 0.00300,0.00000,   0.00,   0.00,   0.00,  0.00000,  0.00000,  0.00000,  0.00000,1,1,   0.0,   1,1.0000,   0,1.0000,   0,1.0000,   0,1.0000
    3,    19,'1 ', 0.00800, 0.06900,0.13900,   0.00,   0.00,   0.00,  0.00000,  0.00000,  0.00000,  0.00000,1,1,   0.0,   1,1.0000,   0,1.0000,   0,1.0000,   0,1.0000
    3,   150,'1 ', 0.00100, 0.00700,0.00000,   0.00,   0.00,   0.00,  0.00000,  0.00000,  0.00000,  0.00000,1,1,   0.0,   1,1.0000,   0,1.0000,   0,1.0000,   0,1.0000
    4,    16,'1 ', 0.00200, 0.01900,1.12700,   0.00,   0.00,   0.00,  0.00000,  0.00000,  0.00000,  0.00000,1,1,   0.0,   1,1.0000,   0,1.0000,   0,1.0000,   0,1.0000
    5,     9,'1 ', 0.00600, 0.02900,0.01800,   0.00,   0.00,   0.00,  0.00000,  0.00000,  0.00000,  0.00000,1,1,   0.0,   1,1.0000,   0,1.0000,   0,1.0000,   0,1.0000
    7,    12,'1 ', 0.00100, 0.00900,0.07000,   0.00,   0.00,   0.00,  0.00000,  0.00000,  0.00000,  0.00000,1,1,   0.0,   1,1.0000,   0,1.0000,   0,1.0000,   0,1.0000
    7,   131,'1 ', 0.00100, 0.00700,0.01400,   0.00,   0.00,   0.00,  0.00000,  0.00000,  0.00000,  0.00000,1,1,   0.0,   1,1.0000,   0,1.0000,   0,1.0000,   0,1.0000
    8,    11,'1 ', 0.01300, 0.05950,0.03300,   0.00,   0.00,   0.00,  0.00000,  0.00000,  0.00000,  0.00000,1,1,   0.0,   1,1.0000,   0,1.0000,   0,1.0000,   0,1.0000
    8,    14,'1 ', 0.01300, 0.04200,0.08100,   0.00,   0.00,   0.00,  0.00000,  0.00000,  0.00000,  0.00000,1,1,   0.0,   1,1.0000,   0,1.0000,   0,1.0000,   0,1.0000
    9,    11,'1 ', 0.00600, 0.02700,0.01300,   0.00,   0.00,   0.00,  0.00000,  0.00000,  0.00000,  0.00000,1,1,   0.0,   1,1.0000,   0,1.0000,   0,1.0000,   0,1.0000
   11,    13,'1 ', 0.00800, 0.03400,0.01800,   0.00,   0.00,   0.00,  0.00000,  0.00000,  0.00000,  0.00000,1,1,   0.0,   1,1.0000,   0,1.0000,   0,1.0000,   0,1.0000
   12,    21,'1 ', 0.00200, 0.01500,0.11800,   0.00,   0.00,   0.00,  0.00000,  0.00000,  0.00000,  0.00000,1,1,   0.0,   1,1.0000,   0,1.0000,   0,1.0000,   0,1.0000
   13,    20,'1 ', 0.00600, 0.03400,0.01600,   0.00,   0.00,   0.00,  0.00000,  0.00000,  0.00000,  0.00000,1,1,   0.0,   1,1.0000,   0,1.0000,   0,1.0000,   0,1.0000
   14,    15,'1 ', 0.01400, 0.04200,0.09700,   0.00,   0.00,   0.00,  0.00000,  0.00000,  0.00000,  0.00000,1,1,   0.0,   1,1.0000,   0,1.0000,   0,1.0000,   0,1.0000
   15,    37,'1 ', 0.06500, 0.24800,0.12100,   0.00,   0.00,   0.00,  0.00000,  0.00000,  0.00000,  0.00000,1,1,   0.0,   1,1.0000,   0,1.0000,   0,1.0000,   0,1.0000
   15,    89,'1 ', 0.09900, 0.24800,0.03500,   0.00,   0.00,   0.00,  0.00000,  0.00000,  0.00000,  0.00000,1,1,   0.0,   1,1.0000,   0,1.0000,   0,1.0000,   0,1.0000
   15,    90,'1 ', 0.09600, 0.36300,0.04800,   0.00,   0.00,   0.00,  0.00000,  0.00000,  0.00000,  0.00000,1,1,   0.0,   1,1.0000,   0,1.0000,   0,1.0000,   0,1.0000
   16,    42,'1 ', 0.00200, 0.02200,1.28000,   0.00,   0.00,   0.00,  0.00000,  0.00000,  0.00000,  0.00000,1,1,   0.0,   1,1.0000,   0,1.0000,   0,1.0000,   0,1.0000
   19,    21,'1 ', 0.00200, 0.01800,0.03600,   0.00,   0.00,   0.00,  0.00000,  0.00000,  0.00000,  0.00000,1,1,   0.0,   1,1.0000,   0,1.0000,   0,1.0000,   0,1.0000
   19,    87,'1 ', 0.01300, 0.08000,0.15100,   0.00,   0.00,   0.00,  0.00000,  0.00000,  0.00000,  0.00000,1,1,   0.0,   1,1.0000,   0,1.0000,   0,1.0000,   0,1.0000
   20,    22,'1 ', 0.01600, 0.03300,0.01500,   0.00,   0.00,   0.00,  0.00000,  0.00000,  0.00000,  0.00000,1,1,   0.0,   1,1.0000,   0,1.0000,   0,1.0000,   0,1.0000
   20,    27,'1 ', 0.06900, 0.18600,0.09800,   0.00,   0.00,   0.00,  0.00000,  0.00000,  0.00000,  0.00000,1,1,   0.0,   1,1.0000,   0,1.0000,   0,1.0000,   0,1.0000
   21,    24,'1 ', 0.00400, 0.03400,0.28000,   0.00,   0.00,   0.00,  0.00000,  0.00000,  0.00000,  0.00000,1,1,   0.0,   1,1.0000,   0,1.0000,   0,1.0000,   0,1.0000
   22,    23,'1 ', 0.05200, 0.11100,0.05000,   0.00,   0.00,   0.00,  0.00000,  0.00000,  0.00000,  0.00000,1,1,   0.0,   1,1.0000,   0,1.0000,   0,1.0000,   0,1.0000
   23,    25,'1 ', 0.01900, 0.03900,0.01800,   0.00,   0.00,   0.00,  0.00000,  0.00000,  0.00000,  0.00000,1,1,   0.0,   1,1.0000,   0,1.0000,   0,1.0000,   0,1.0000
   24,   319,'1 ', 0.00700, 0.06800,0.13400,   0.00,   0.00,   0.00,  0.00000,  0.00000,  0.00000,  0.00000,1,1,   0.0,   1,1.0000,   0,1.0000,   0,1.0000,   0,1.0000
   25,    26,'1 ', 0.03600, 0.07100,0.03400,   0.00,   0.00,   0.00,  0.00000,  0.00000,  0.00000,  0.00000,1,1,   0.0,   1,1.0000,   0,1.0000,   0,1.0000,   0,1.0000
   26,    27,'1 ', 0.04500, 0.12000,0.06500,   0.00,   0.00,   0.00,  0.00000,  0.00000,  0.00000,  0.00000,1,1,   0.0,   1,1.0000,   0,1.0000,   0,1.0000,   0,1.0000
   26,   320,'1 ', 0.04300, 0.13000,0.01400,   0.00,   0.00,   0.00,  0.00000,  0.00000,  0.00000,  0.00000,1,1,   0.0,   1,1.0000,   0,1.0000,   0,1.0000,   0,1.0000
   33,    34,'1 ', 0.00000, 0.06300,0.00000,   0.00,   0.00,   0.00,  0.00000,  0.00000,  0.00000,  0.00000,1,1,   0.0,   1,1.0000,   0,1.0000,   0,1.0000,   0,1.0000
   33,    38,'1 ', 0.00250, 0.01200,0.01300,   0.00,   0.00,   0.00,  0.00000,  0.00000,  0.00000,  0.00000,1,1,   0.0,   1,1.0000,   0,1.0000,   0,1.0000,   0,1.0000
   33,    40,'1 ', 0.00600, 0.02900,0.02000,   0.00,   0.00,   0.00,  0.00000,  0.00000,  0.00000,  0.00000,1,1,   0.0,   1,1.0000,   0,1.0000,   0,1.0000,   0,1.0000
   33,    41,'1 ', 0.00700, 0.04300,0.02600,   0.00,   0.00,   0.00,  0.00000,  0.00000,  0.00000,  0.00000,1,1,   0.0,   1,1.0000,   0,1.0000,   0,1.0000,   0,1.0000
   34,    42,'1 ', 0.00100, 0.00800,0.04200,   0.00,   0.00,   0.00,  0.00000,  0.00000,  0.00000,  0.00000,1,1,   0.0,   1,1.0000,   0,1.0000,   0,1.0000,   0,1.0000
   35,    72,'1 ', 0.01200, 0.06000,0.00800,   0.00,   0.00,   0.00,  0.00000,  0.00000,  0.00000,  0.00000,1,1,   0.0,   1,1.0000,   0,1.0000,   0,1.0000,   0,1.0000
   35,    76,'1 ', 0.00600, 0.01400,0.00200,   0.00,   0.00,   0.00,  0.00000,  0.00000,  0.00000,  0.00000,1,1,   0.0,   1,1.0000,   0,1.0000,   0,1.0000,   0,1.0000
   35,    77,'1 ', 0.01000, 0.02900,0.00300,   0.00,   0.00,   0.00,  0.00000,  0.00000,  0.00000,  0.00000,1,1,   0.0,   1,1.0000,   0,1.0000,   0,1.0000,   0,1.0000
   36,    88,'1 ', 0.00400, 0.02700,0.04300,   0.00,   0.00,   0.00,  0.00000,  0.00000,  0.00000,  0.00000,1,1,   0.0,   1,1.0000,   0,1.0000,   0,1.0000,   0,1.0000
   37,    38,'1 ', 0.00800, 0.04700,0.00800,   0.00,   0.00,   0.00,  0.00000,  0.00000,  0.00000,  0.00000,1,1,   0.0,   1,1.0000,   0,1.0000,   0,1.0000,   0,1.0000
   37,    40,'1 ', 0.02200, 0.06400,0.00700,   0.00,   0.00,   0.00,  0.00000,  0.00000,  0.00000,  0.00000,1,1,   0.0,   1,1.0000,   0,1.0000,   0,1.0000,   0,1.0000
   37,    41,'1 ', 0.01000, 0.03600,0.02000,   0.00,   0.00,   0.00,  0.00000,  0.00000,  0.00000,  0.00000,1,1,   0.0,   1,1.0000,   0,1.0000,   0,1.0000,   0,1.0000
   37,    49,'1 ', 0.01700, 0.08100,0.04800,   0.00,   0.00,   0.00,  0.00000,  0.00000,  0.00000,  0.00000,1,1,   0.0,   1,1.0000,   0,1.0000,   0,1.0000,   0,1.0000
   37,    89,'1 ', 0.10200, 0.25400,0.03300,   0.00,   0.00,   0.00,  0.00000,  0.00000,  0.00000,  0.00000,1,1,   0.0,   1,1.0000,   0,1.0000,   0,1.0000,   0,1.0000
   37,    90,'1 ', 0.04700, 0.12700,0.01600,   0.00,   0.00,   0.00,  0.00000,  0.00000,  0.00000,  0.00000,1,1,   0.0,   1,1.0000,   0,1.0000,   0,1.0000,   0,1.0000
   38,    41,'1 ', 0.00800, 0.03700,0.02000,   0.00,   0.00,   0.00,  0.00000,  0.00000,  0.00000,  0.00000,1,1,   0.0,   1,1.0000,   0,1.0000,   0,1.0000,   0,1.0000
   38,    43,'1 ', 0.03200, 0.08700,0.04000,   0.00,   0.00,   0.00,  0.00000,  0.00000,  0.00000,  0.00000,1,1,   0.0,   1,1.0000,   0,1.0000,   0,1.0000,   0,1.0000
   39,    42,'1 ', 0.00060, 0.00640,0.40400,   0.00,   0.00,   0.00,  0.00000,  0.00000,  0.00000,  0.00000,1,1,   0.0,   1,1.0000,   0,1.0000,   0,1.0000,   0,1.0000
   40,    48,'1 ', 0.02600, 0.15400,0.02200,   0.00,   0.00,   0.00,  0.00000,  0.00000,  0.00000,  0.00000,1,1,   0.0,   1,1.0000,   0,1.0000,   0,1.0000,   0,1.0000
   41,    42,'1 ', 0.00000, 0.02900,0.00000,   0.00,   0.00,   0.00,  0.00000,  0.00000,  0.00000,  0.00000,1,1,   0.0,   1,1.0000,   0,1.0000,   0,1.0000,   0,1.0000
   41,    49,'1 ', 0.06500, 0.19100,0.02000,   0.00,   0.00,   0.00,  0.00000,  0.00000,  0.00000,  0.00000,1,1,   0.0,   1,1.0000,   0,1.0000,   0,1.0000,   0,1.0000
   41,    51,'1 ', 0.03100, 0.08900,0.03600,   0.00,   0.00,   0.00,  0.00000,  0.00000,  0.00000,  0.00000,1,1,   0.0,   1,1.0000,   0,1.0000,   0,1.0000,   0,1.0000
   42,    46,'1 ', 0.00200, 0.01400,0.80600,   0.00,   0.00,   0.00,  0.00000,  0.00000,  0.00000,  0.00000,1,1,   0.0,   1,1.0000,   0,1.0000,   0,1.0000,   0,1.0000
   43,    44,'1 ', 0.02600, 0.07200,0.03500,   0.00,   0.00,   0.00,  0.00000,  0.00000,  0.00000,  0.00000,1,1,   0.0,   1,1.0000,   0,1.0000,   0,1.0000,   0,1.0000
   43,    48,'1 ', 0.09500, 0.26200,0.03200,   0.00,   0.00,   0.00,  0.00000,  0.00000,  0.00000,  0.00000,1,1,   0.0,   1,1.0000,   0,1.0000,   0,1.0000,   0,1.0000
   43,    53,'1 ', 0.01300, 0.03900,0.01600,   0.00,   0.00,   0.00,  0.00000,  0.00000,  0.00000,  0.00000,1,1,   0.0,   1,1.0000,   0,1.0000,   0,1.0000,   0,1.0000
   44,    47,'1 ', 0.02700, 0.08400,0.03900,   0.00,   0.00,   0.00,  0.00000,  0.00000,  0.00000,  0.00000,1,1,   0.0,   1,1.0000,   0,1.0000,   0,1.0000,   0,1.0000
   44,    54,'1 ', 0.02800, 0.08400,0.03700,   0.00,   0.00,   0.00,  0.00000,  0.00000,  0.00000,  0.00000,1,1,   0.0,   1,1.0000,   0,1.0000,   0,1.0000,   0,1.0000
   45,    60,'1 ', 0.00700, 0.04100,0.31200,   0.00,   0.00,   0.00,  0.00000,  0.00000,  0.00000,  0.00000,1,1,   0.0,   1,1.0000,   0,1.0000,   0,1.0000,   0,1.0000
   45,    74,'1 ', 0.00900, 0.05400,0.41100,   0.00,   0.00,   0.00,  0.00000,  0.00000,  0.00000,  0.00000,1,1,   0.0,   1,1.0000,   0,1.0000,   0,1.0000,   0,1.0000
   46,    81,'1 ', 0.00500, 0.04200,0.69000,   0.00,   0.00,   0.00,  0.00000,  0.00000,  0.00000,  0.00000,1,1,   0.0,   1,1.0000,   0,1.0000,   0,1.0000,   0,1.0000
   47,    73,'1 ', 0.05200, 0.14500,0.07300,   0.00,   0.00,   0.00,  0.00000,  0.00000,  0.00000,  0.00000,1,1,   0.0,   1,1.0000,   0,1.0000,   0,1.0000,   0,1.0000
   47,   113,'1 ', 0.04300, 0.11800,0.01300,   0.00,   0.00,   0.00,  0.00000,  0.00000,  0.00000,  0.00000,1,1,   0.0,   1,1.0000,   0,1.0000,   0,1.0000,   0,1.0000
   48,   107,'1 ', 0.02500, 0.06200,0.00700,   0.00,   0.00,   0.00,  0.00000,  0.00000,  0.00000,  0.00000,1,1,   0.0,   1,1.0000,   0,1.0000,   0,1.0000,   0,1.0000
...